tests/fuzzer/corpus_json/24_columnar_13_open_line.json
{
  "version": "1.0",
  "type": "input",
  "is_batch": false,
  "attributes": {
    "node": [
      "id",
      "u_rated"
    ],
    "source": [
      "id",
      "node",
      "status",
      "u_ref",
      "u_ref_angle",
      "sk",
      "rx_ratio",
      "z01_ratio"
    ],
    "line": [
      "id",
      "from_node",
      "to_node",
      "from_status",
      "to_status",
      "r1",
      "x1",
      "c1",
      "tan1",
      "r0",
      "x0",
      "c0",
      "tan0",
      "i_n"
    ],
    "sym_load": [
      "id",
      "node",
      "status",
      "type",
      "p_specified",
      "q_specified"
    ]
  },
  "data": {
    "node": [
      [
        0,
        10000.0
      ],
      [
        1,
        10000.0
      ],
      [
        2,
        10000.0
      ]
    ],
    "source": [
      [
        3,
        0,
        1,
        1.0,
        0.0,
        1000000.0,
        0.1,
        1.0
      ]
    ],
    "line": [
      [
        4,
        0,
        1,
        1,
        1,
        0.1,
        0.1,
        1e-09,
        0.0,
        0.3,
        0.3,
        1e-09,
        0.0,
        400.0
      ],
      [
        5,
        1,
        2,
        0,
        0,
        0.1,
        0.1,
        1e-09,
        0.0,
        0.3,
        0.3,
        1e-09,
        0.0,
        400.0
      ]
    ],
    "sym_load": [
      [
        6,
        1,
        1,
        0,
        10000.0,
        5000.0
      ],
      [
        7,
        2,
        1,
        0,
        10000.0,
        5000.0
      ]
    ]
  }
}
